REMARK  Name = /home/mpavan/autogrow4-4.0.3/Outputfolder/Run_0/generation_1/PDBs/Gen_1_Cross_723108__1.pdb
REMARK                            x       y       z     vdW  Elec       q    Type
REMARK                         _______ _______ _______ _____ _____    ______ ____
ROOT
ATOM      1  C   LIG    1        1.158   0.405  -0.324  0.00  0.00    +0.131 A 
ATOM      2  C   LIG    1        0.616   1.693  -0.518  0.00  0.00    +0.040 A 
ATOM      3  C   LIG    1       -0.277   1.925  -1.577  0.00  0.00    +0.021 A 
ATOM      4  C   LIG    1       -0.614   0.894  -2.464  0.00  0.00    -0.017 A 
ATOM      5  C   LIG    1       -1.500   1.128  -3.528  0.00  0.00    +0.008 A 
ATOM      6  C   LIG    1       -1.829   0.093  -4.407  0.00  0.00    +0.001 A 
ATOM      7  C   LIG    1       -1.279  -1.180  -4.231  0.00  0.00    +0.001 A 
ATOM      8  C   LIG    1       -0.397  -1.425  -3.175  0.00  0.00    +0.008 A 
ATOM      9  C   LIG    1       -0.058  -0.393  -2.285  0.00  0.00    -0.014 A 
ATOM     10  C   LIG    1        0.821  -0.629  -1.219  0.00  0.00    +0.054 A 
ENDROOT
BRANCH   1  11
ATOM     11  O   LIG    1        2.024   0.194   0.766  0.00  0.00    -0.479 OA
BRANCH  11  12
ATOM     12  C   LIG    1        2.602  -1.055   1.139  0.00  0.00    +0.317 C 
BRANCH  12  14
ATOM     13  C   LIG    1        0.731  -2.686   2.131  0.00  0.00    +0.007 C 
ATOM     14  C   LIG    1        1.576  -1.951   1.685  0.00  0.00    -0.065 C 
ENDBRANCH  12  14
ENDBRANCH  11  12
ENDBRANCH   1  11
BRANCH   2  15
ATOM     15  C   LIG    1        0.930   2.815   0.444  0.00  0.00    +0.201 C 
BRANCH  15  16
ATOM     16  N   LIG    1        0.032   2.769   1.599  0.00  0.00    +0.392 N 
ATOM     17  H   LIG    1        0.159   1.865   2.114  0.00  0.00    +0.235 HD
ATOM     18  H   LIG    1       -0.961   2.882   1.282  0.00  0.00    +0.235 HD
BRANCH  16  19
ATOM     19  O   LIG    1        0.355   3.800   2.426  0.00  0.00    -0.345 OA
ATOM     20  H   LIG    1       -0.269   3.744   3.198  0.00  0.00    +0.269 HD
ENDBRANCH  16  19
ENDBRANCH  15  16
ENDBRANCH   2  15
TORSDOF 6
