REMARK  Name = /home/mpavan/autogrow4-4.0.3/Outputfolder/Run_0/generation_1/PDBs/Gen_1_Cross_827949__1.pdb
REMARK                            x       y       z     vdW  Elec       q    Type
REMARK                         _______ _______ _______ _____ _____    ______ ____
ROOT
ATOM      1  C   LIG    1        1.862   0.449  -0.035  0.00  0.00    +0.149 A 
ATOM      2  C   LIG    1        0.800  -0.248  -0.633  0.00  0.00    +0.028 A 
ATOM      3  C   LIG    1       -0.529   0.188  -0.464  0.00  0.00    +0.012 A 
ATOM      4  C   LIG    1       -1.584  -0.510  -1.051  0.00  0.00    +0.001 A 
ATOM      5  C   LIG    1       -1.331  -1.651  -1.809  0.00  0.00    +0.001 A 
ATOM      6  C   LIG    1       -0.022  -2.101  -1.986  0.00  0.00    +0.011 A 
ATOM      7  C   LIG    1        1.063  -1.409  -1.403  0.00  0.00    +0.020 A 
ATOM      8  C   LIG    1        2.392  -1.862  -1.577  0.00  0.00    +0.189 A 
ATOM      9  C   LIG    1        3.463  -1.129  -0.998  0.00  0.00    +0.202 A 
ATOM     10  C   LIG    1        3.181   0.004  -0.196  0.00  0.00    +0.118 A 
ATOM     11 CL   LIG    1        4.445   0.836   0.716  0.00  0.00    -0.077 Cl
ENDROOT
BRANCH   8  12
ATOM     12  N   LIG    1        2.607  -3.051  -2.366  0.00  0.00    +0.119 NA
ATOM     13  N   LIG    1        3.690  -3.627  -2.478  0.00  0.00    -0.009 NA
ATOM     14  N   LIG    1        4.767  -4.211  -2.594  0.00  0.00    -0.328 NA
ENDBRANCH   8  12
BRANCH   9  15
ATOM     15  N   LIG    1        4.815  -1.561  -1.228  0.00  0.00    +0.120 NA
ATOM     16  N   LIG    1        5.764  -0.782  -1.330  0.00  0.00    -0.009 NA
ATOM     17  N   LIG    1        6.715  -0.009  -1.438  0.00  0.00    -0.328 NA
ENDBRANCH   9  15
BRANCH   1  18
ATOM     18  O   LIG    1        1.609   1.581   0.744  0.00  0.00    -0.488 OA
BRANCH  18  19
ATOM     19  C   LIG    1        1.644   2.890   0.183  0.00  0.00    +0.259 C 
BRANCH  19  20
ATOM     20  C   LIG    1        1.368   3.933   1.265  0.00  0.00    +0.275 C 
BRANCH  20  23
ATOM     21  N   LIG    1       -0.775   1.916   3.068  0.00  0.00    -0.328 NA
ATOM     22  N   LIG    1       -0.390   2.879   2.408  0.00  0.00    -0.015 NA
ATOM     23  N   LIG    1       -0.006   3.844   1.746  0.00  0.00    +0.080 NA
ENDBRANCH  20  23
ENDBRANCH  19  20
ENDBRANCH  18  19
ENDBRANCH   1  18
TORSDOF 6
