REMARK  Name = /home/mpavan/autogrow4-4.0.3/Outputfolder/Run_0/generation_1/PDBs/Gen_1_Cross_290994__1.pdb
REMARK                            x       y       z     vdW  Elec       q    Type
REMARK                         _______ _______ _______ _____ _____    ______ ____
ROOT
ATOM      1  C   LIG    1       -0.073  -0.467   1.272  0.00  0.00    +0.155 A 
ATOM      2  C   LIG    1       -0.321   0.480   0.243  0.00  0.00    +0.196 A 
ATOM      3  C   LIG    1        0.738   0.873  -0.612  0.00  0.00    +0.018 A 
ATOM      4  C   LIG    1        0.536   1.812  -1.646  0.00  0.00    +0.011 A 
ATOM      5  C   LIG    1        1.591   2.187  -2.481  0.00  0.00    +0.001 A 
ATOM      6  C   LIG    1        2.860   1.637  -2.300  0.00  0.00    +0.001 A 
ATOM      7  C   LIG    1        3.083   0.708  -1.283  0.00  0.00    +0.008 A 
ATOM      8  C   LIG    1        2.031   0.320  -0.436  0.00  0.00    -0.015 A 
ATOM      9  C   LIG    1        2.259  -0.610   0.580  0.00  0.00    +0.012 A 
ATOM     10  C   LIG    1        1.222  -0.999   1.424  0.00  0.00    +0.049 A 
ENDROOT
BRANCH   2  11
ATOM     11  N   LIG    1       -1.625   1.061   0.036  0.00  0.00    +0.120 NA
ATOM     12  N   LIG    1       -2.618   0.781   0.708  0.00  0.00    -0.009 NA
ATOM     13  N   LIG    1       -3.615   0.508   1.375  0.00  0.00    -0.328 NA
ENDBRANCH   2  11
BRANCH   1  14
ATOM     14  O   LIG    1       -1.123  -0.855   2.124  0.00  0.00    -0.477 OA
BRANCH  14  15
ATOM     15  C   LIG    1       -1.040  -1.827   3.166  0.00  0.00    +0.317 C 
BRANCH  15  17
ATOM     16  C   LIG    1       -0.820  -4.282   2.135  0.00  0.00    +0.007 C 
ATOM     17  C   LIG    1       -0.920  -3.175   2.601  0.00  0.00    -0.065 C 
ENDBRANCH  15  17
ENDBRANCH  14  15
ENDBRANCH   1  14
TORSDOF 4
