REMARK  Name = /home/mpavan/autogrow4-4.0.3/Outputfolder/Run_0/generation_1/PDBs/Gen_1_Mutant_44_719083__1.pdb
REMARK                            x       y       z     vdW  Elec       q    Type
REMARK                         _______ _______ _______ _____ _____    ______ ____
ROOT
ATOM      1  C   LIG    1       -0.755  -3.283  -0.171  0.00  0.00    +0.025 A 
ATOM      2  C   LIG    1       -1.308  -2.077  -0.608  0.00  0.00    +0.030 A 
ATOM      3  C   LIG    1       -0.813  -0.861  -0.133  0.00  0.00    +0.079 A 
ATOM      4  N   LIG    1       -1.363   0.308  -0.569  0.00  0.00    -0.228 NA
ATOM      5  C   LIG    1       -0.875   1.481  -0.101  0.00  0.00    +0.149 A 
ATOM      6  C   LIG    1       -1.300   2.760  -0.423  0.00  0.00    +0.028 A 
ATOM      7  C   LIG    1       -0.496   3.577   0.306  0.00  0.00    +0.019 A 
ATOM      8  C   LIG    1        0.378   2.837   1.039  0.00  0.00    +0.060 A 
ATOM      9  C   LIG    1        1.305   3.473   1.870  0.00  0.00    +0.029 A 
ATOM     10  C   LIG    1        1.289   4.890   1.909  0.00  0.00    +0.037 A 
ATOM     11  C   LIG    1        0.357   5.645   1.126  0.00  0.00    +0.155 A 
ATOM     12  C   LIG    1       -0.561   4.955   0.301  0.00  0.00    +0.017 A 
ATOM     13  C   LIG    1       -1.543   5.537  -0.532  0.00  0.00    +0.011 A 
ATOM     14  C   LIG    1       -2.399   4.704  -1.308  0.00  0.00    +0.001 A 
ATOM     15  C   LIG    1       -2.282   3.292  -1.258  0.00  0.00    +0.012 A 
ATOM     16  N   LIG    1        0.149   1.522   0.792  0.00  0.00    -0.260 N 
ATOM     17  C   LIG    1        0.740   0.392   1.264  0.00  0.00    +0.267 A 
ATOM     18  O   LIG    1        1.689   0.458   2.092  0.00  0.00    -0.267 OA
ATOM     19  C   LIG    1        0.260  -0.853   0.800  0.00  0.00    +0.067 A 
ATOM     20  C   LIG    1        0.809  -2.072   1.233  0.00  0.00    +0.038 A 
ATOM     21  C   LIG    1        0.309  -3.300   0.753  0.00  0.00    +0.031 A 
ENDROOT
BRANCH  21  22
ATOM     22  N   LIG    1        0.876  -4.555   1.200  0.00  0.00    -0.330 N 
ATOM     23  C   LIG    1        2.084  -4.662   2.005  0.00  0.00    +0.105 C 
ATOM     24  C   LIG    1        2.402  -6.148   2.087  0.00  0.00    +0.020 C 
ATOM     25  C   LIG    1        1.116  -6.867   1.699  0.00  0.00    +0.020 C 
ATOM     26  C   LIG    1        0.306  -5.859   0.895  0.00  0.00    +0.105 C 
ENDBRANCH  21  22
BRANCH  11  27
ATOM     27  N   LIG    1        0.338   7.079   1.162  0.00  0.00    +0.116 NA
ATOM     28  N   LIG    1        1.115   7.730   1.862  0.00  0.00    -0.009 NA
ATOM     29  N   LIG    1        1.890   8.381   2.561  0.00  0.00    -0.328 NA
ENDBRANCH  11  27
TORSDOF 2
