REMARK  Name = /home/mpavan/autogrow4-4.0.3/Outputfolder/Run_0/generation_1/PDBs/Gen_1_Mutant_62_726751__1.pdb
REMARK                            x       y       z     vdW  Elec       q    Type
REMARK                         _______ _______ _______ _____ _____    ______ ____
ROOT
ATOM      1 CL   LIG    1        1.756   6.123   2.595  0.00  0.00    -0.084 Cl
ATOM      2  C   LIG    1        1.541   5.007   1.258  0.00  0.00    +0.042 A 
ATOM      3  C   LIG    1        1.228   3.660   1.516  0.00  0.00    +0.029 A 
ATOM      4  C   LIG    1        1.061   2.790   0.435  0.00  0.00    -0.009 A 
ATOM      5  C   LIG    1        0.757   1.427   0.514  0.00  0.00    +0.024 A 
ATOM      6  C   LIG    1        0.648   0.832  -0.746  0.00  0.00    +0.021 A 
ATOM      7  S   LIG    1        0.965   1.989  -1.942  0.00  0.00    -0.088 S 
ATOM      8  C   LIG    1        1.206   3.252  -0.864  0.00  0.00    +0.020 A 
ATOM      9  C   LIG    1        1.518   4.580  -1.145  0.00  0.00    +0.017 A 
ATOM     10  C   LIG    1        1.685   5.464  -0.068  0.00  0.00    +0.021 A 
ENDROOT
BRANCH   6  11
ATOM     11  C   LIG    1        0.407  -0.604  -1.005  0.00  0.00    -0.004 A 
ATOM     12  C   LIG    1       -0.677  -1.319  -0.427  0.00  0.00    -0.010 A 
ATOM     13  C   LIG    1       -1.671  -0.684   0.349  0.00  0.00    +0.009 A 
ATOM     14  C   LIG    1       -2.718  -1.422   0.906  0.00  0.00    +0.001 A 
ATOM     15  C   LIG    1       -2.803  -2.797   0.692  0.00  0.00    +0.001 A 
ATOM     16  C   LIG    1       -1.848  -3.443  -0.095  0.00  0.00    +0.008 A 
ATOM     17  C   LIG    1       -0.791  -2.717  -0.665  0.00  0.00    -0.017 A 
ATOM     18  C   LIG    1        0.143  -3.368  -1.482  0.00  0.00    +0.008 A 
ATOM     19  C   LIG    1        1.181  -2.650  -2.072  0.00  0.00    +0.001 A 
ATOM     20  C   LIG    1        1.311  -1.282  -1.839  0.00  0.00    +0.009 A 
ENDBRANCH   6  11
TORSDOF 1
