REMARK  Name = /home/mpavan/autogrow4-4.0.3/Outputfolder/Run_0/generation_1/PDBs/Gen_1_Cross_425078__1.pdb
REMARK                            x       y       z     vdW  Elec       q    Type
REMARK                         _______ _______ _______ _____ _____    ______ ____
ROOT
ATOM      1  C   LIG    1       -0.128  -0.732   0.587  0.00  0.00    +0.057 A 
ATOM      2  C   LIG    1       -0.561   0.420   1.283  0.00  0.00    +0.060 A 
ATOM      3 CL   LIG    1       -0.421   0.475   3.048  0.00  0.00    -0.082 Cl
ATOM      4  C   LIG    1       -1.067   1.529   0.563  0.00  0.00    +0.001 A 
ATOM      5  C   LIG    1       -1.507   2.701   1.215  0.00  0.00    +0.010 A 
ATOM      6  C   LIG    1       -2.000   3.781   0.479  0.00  0.00    +0.001 A 
ATOM      7  C   LIG    1       -2.063   3.714  -0.913  0.00  0.00    +0.001 A 
ATOM      8  C   LIG    1       -1.634   2.565  -1.578  0.00  0.00    +0.008 A 
ATOM      9  C   LIG    1       -1.136   1.471  -0.853  0.00  0.00    -0.017 A 
ATOM     10  C   LIG    1       -0.708   0.322  -1.526  0.00  0.00    +0.001 A 
ATOM     11  C   LIG    1       -0.215  -0.772  -0.817  0.00  0.00    -0.094 A 
ATOM     12  O   LIG    1        0.173  -1.910  -1.517  0.00  0.00    -0.873 OA
ENDROOT
BRANCH   1  13
ATOM     13  C   LIG    1        0.397  -1.908   1.318  0.00  0.00    +0.346 C 
ATOM     14  O   LIG    1       -0.331  -2.477   2.174  0.00  0.00    -0.261 OA
BRANCH  13  17
ATOM     15  N   LIG    1        3.320  -1.240  -0.367  0.00  0.00    -0.330 NA
ATOM     16  N   LIG    1        2.517  -1.829   0.355  0.00  0.00    -0.016 NA
ATOM     17  N   LIG    1        1.713  -2.418   1.078  0.00  0.00    +0.189 NA
ENDBRANCH  13  17
ENDBRANCH   1  13
TORSDOF 2
