REMARK  Name = /home/mpavan/autogrow4-4.0.3/Outputfolder/Run_0/generation_1/PDBs/Gen_1_Mutant_20_891560__1.pdb
REMARK                            x       y       z     vdW  Elec       q    Type
REMARK                         _______ _______ _______ _____ _____    ______ ____
ROOT
ATOM      1  C   LIG    1       -1.980   1.144   1.366  0.00  0.00    +0.055 A 
ATOM      2  C   LIG    1       -2.376  -0.211   1.432  0.00  0.00    -0.002 A 
ATOM      3  C   LIG    1       -1.723  -1.134   2.278  0.00  0.00    +0.009 A 
ATOM      4  C   LIG    1       -2.120  -2.471   2.317  0.00  0.00    +0.001 A 
ATOM      5  C   LIG    1       -3.175  -2.912   1.523  0.00  0.00    +0.001 A 
ATOM      6  C   LIG    1       -3.844  -2.018   0.690  0.00  0.00    +0.008 A 
ATOM      7  C   LIG    1       -3.461  -0.662   0.639  0.00  0.00    -0.022 A 
ATOM      8  C   LIG    1       -4.152   0.241  -0.188  0.00  0.00    -0.065 A 
ATOM      9  O   LIG    1       -5.203  -0.227  -0.972  0.00  0.00    -0.872 OA
ATOM     10  C   LIG    1       -3.788   1.607  -0.223  0.00  0.00    +0.173 A 
ATOM     11  C   LIG    1       -2.699   2.058   0.569  0.00  0.00    +0.193 A 
ENDROOT
BRANCH  10  12
ATOM     12  N   LIG    1       -4.491   2.552  -1.053  0.00  0.00    +0.117 NA
ATOM     13  N   LIG    1       -5.478   2.274  -1.735  0.00  0.00    -0.009 NA
ATOM     14  N   LIG    1       -6.465   2.005  -2.419  0.00  0.00    -0.328 NA
ENDBRANCH  10  12
BRANCH  11  15
ATOM     15  N   LIG    1       -2.282   3.439   0.603  0.00  0.00    +0.119 NA
ATOM     16  N   LIG    1       -2.846   4.356   0.005  0.00  0.00    -0.009 NA
ATOM     17  N   LIG    1       -3.402   5.280  -0.588  0.00  0.00    -0.328 NA
ENDBRANCH  11  15
BRANCH   1  18
ATOM     18  S   LIG    1       -0.554   1.746   2.309  0.00  0.00    -0.086 S 
BRANCH  18  21
ATOM     19  C   LIG    1        2.153   0.025  -0.227  0.00  0.00    +0.122 A 
ATOM     20  C   LIG    1        1.247   0.241   0.819  0.00  0.00    +0.060 A 
ATOM     21  C   LIG    1        0.602   1.477   0.961  0.00  0.00    +0.016 A 
ATOM     22  C   LIG    1        0.882   2.512   0.061  0.00  0.00    +0.015 A 
ATOM     23  C   LIG    1        1.782   2.306  -0.986  0.00  0.00    +0.005 A 
ATOM     24  C   LIG    1        2.414   1.068  -1.136  0.00  0.00    +0.046 A 
BRANCH  19  25
ATOM     25  O   LIG    1        2.768  -1.234  -0.320  0.00  0.00    -0.485 OA
BRANCH  25  26
ATOM     26  C   LIG    1        3.756  -1.603  -1.285  0.00  0.00    +0.193 C 
ATOM     27  C   LIG    1        3.982  -3.112  -1.204  0.00  0.00    +0.056 C 
BRANCH  26  29
ATOM     28  C   LIG    1        6.015  -0.791  -1.928  0.00  0.00    +0.007 C 
ATOM     29  C   LIG    1        5.045  -0.868  -1.012  0.00  0.00    +0.009 C 
ENDBRANCH  26  29
ENDBRANCH  25  26
ENDBRANCH  19  25
ENDBRANCH  18  21
ENDBRANCH   1  18
TORSDOF 7
