REMARK  Name = /home/mpavan/autogrow4-4.0.3/Outputfolder/Run_0/generation_1/PDBs/Gen_1_Mutant_44_87393__1.pdb
REMARK                            x       y       z     vdW  Elec       q    Type
REMARK                         _______ _______ _______ _____ _____    ______ ____
ROOT
ATOM      1  C   LIG    1        0.305  -4.153  -1.167  0.00  0.00    -0.113 A 
ATOM      2  C   LIG    1       -0.445  -3.089  -0.619  0.00  0.00    +0.064 A 
ATOM      3  N   LIG    1        0.024  -2.394   0.454  0.00  0.00    -0.230 NA
ATOM      4  C   LIG    1       -0.690  -1.362   0.954  0.00  0.00    +0.149 A 
ATOM      5  C   LIG    1       -0.333  -0.554   2.011  0.00  0.00    +0.028 A 
ATOM      6  C   LIG    1       -1.353   0.333   2.131  0.00  0.00    +0.021 A 
ATOM      7  C   LIG    1       -2.311   0.070   1.188  0.00  0.00    +0.092 A 
ATOM      8  C   LIG    1       -3.487   0.850   1.170  0.00  0.00    +0.174 A 
ATOM      9  C   LIG    1       -3.594   1.893   2.134  0.00  0.00    +0.072 A 
ATOM     10  C   LIG    1       -2.564   2.161   3.075  0.00  0.00    +0.157 A 
ATOM     11  C   LIG    1       -1.413   1.328   3.092  0.00  0.00    +0.017 A 
ATOM     12  C   LIG    1       -0.336   1.373   4.014  0.00  0.00    +0.011 A 
ATOM     13  C   LIG    1        0.745   0.458   3.894  0.00  0.00    +0.001 A 
ATOM     14  C   LIG    1        0.757  -0.521   2.876  0.00  0.00    +0.012 A 
ATOM     15  N   LIG    1       -1.893  -0.995   0.434  0.00  0.00    -0.258 N 
ATOM     16  C   LIG    1       -2.429  -1.664  -0.631  0.00  0.00    +0.267 A 
ATOM     17  O   LIG    1       -3.539  -1.330  -1.121  0.00  0.00    -0.267 OA
ATOM     18  C   LIG    1       -1.706  -2.745  -1.183  0.00  0.00    +0.064 A 
ATOM     19  C   LIG    1       -2.202  -3.491  -2.267  0.00  0.00    +0.015 A 
ATOM     20  C   LIG    1       -1.470  -4.566  -2.774  0.00  0.00    -0.000 A 
ATOM     21  C   LIG    1       -0.231  -4.898  -2.223  0.00  0.00    -0.014 A 
ENDROOT
BRANCH   8  22
ATOM     22  N   LIG    1       -4.539   0.605   0.231  0.00  0.00    +0.118 NA
ATOM     23  N   LIG    1       -5.573   1.274   0.204  0.00  0.00    -0.009 NA
ATOM     24  N   LIG    1       -6.606   1.941   0.177  0.00  0.00    -0.328 NA
ENDBRANCH   8  22
BRANCH  10  25
ATOM     25  N   LIG    1       -2.748   3.271   3.966  0.00  0.00    +0.116 NA
ATOM     26  N   LIG    1       -1.817   3.980   4.348  0.00  0.00    -0.009 NA
ATOM     27  N   LIG    1       -0.892   4.696   4.728  0.00  0.00    -0.328 NA
ENDBRANCH  10  25
BRANCH   1  28
ATOM     28  N   LIG    1        1.588  -4.540  -0.646  0.00  0.00    -0.608 NA
BRANCH  28  29
ATOM     29  C   LIG    1        2.594  -3.676  -0.099  0.00  0.00    +0.116 C 
ATOM     30  O   LIG    1        3.350  -4.123   0.803  0.00  0.00    -0.310 OA
BRANCH  29  34
ATOM     31  C   LIG    1        3.483  -0.276  -0.603  0.00  0.00    +0.196 A 
ATOM     32  C   LIG    1        2.782  -0.452  -1.778  0.00  0.00    +0.042 A 
ATOM     33  C   LIG    1        2.345  -1.759  -1.771  0.00  0.00    +0.051 A 
ATOM     34  C   LIG    1        2.802  -2.299  -0.582  0.00  0.00    +0.151 A 
ATOM     35  O   LIG    1        3.481  -1.394   0.086  0.00  0.00    -0.462 OA
ENDBRANCH  29  34
ENDBRANCH  28  29
ENDBRANCH   1  28
TORSDOF 5
