REMARK  Name = /home/mpavan/autogrow4-4.0.3/Outputfolder/Run_0/generation_1/PDBs/Gen_1_Cross_911527__1.pdb
REMARK                            x       y       z     vdW  Elec       q    Type
REMARK                         _______ _______ _______ _____ _____    ______ ____
ROOT
ATOM      1  C   LIG    1        1.421  -0.528  -0.097  0.00  0.00    +0.174 A 
ATOM      2  C   LIG    1        0.830   0.163  -1.162  0.00  0.00    -0.065 A 
ATOM      3  O   LIG    1        1.505   0.238  -2.379  0.00  0.00    -0.872 OA
ATOM      4  C   LIG    1       -0.415   0.794  -1.003  0.00  0.00    -0.022 A 
ATOM      5  C   LIG    1       -1.002   1.501  -2.071  0.00  0.00    +0.008 A 
ATOM      6  C   LIG    1       -2.228   2.145  -1.903  0.00  0.00    +0.001 A 
ATOM      7  C   LIG    1       -2.882   2.096  -0.674  0.00  0.00    +0.001 A 
ATOM      8  C   LIG    1       -2.318   1.400   0.396  0.00  0.00    +0.010 A 
ATOM      9  C   LIG    1       -1.080   0.739   0.249  0.00  0.00    +0.002 A 
ATOM     10  C   LIG    1       -0.500   0.012   1.313  0.00  0.00    +0.083 A 
ATOM     11 CL   LIG    1       -1.314  -0.126   2.878  0.00  0.00    -0.080 Cl
ATOM     12  C   LIG    1        0.725  -0.656   1.132  0.00  0.00    +0.198 A 
ENDROOT
BRANCH   1  15
ATOM     13  N   LIG    1        4.455  -0.940   1.489  0.00  0.00    -0.328 NA
ATOM     14  N   LIG    1        3.602  -0.989   0.604  0.00  0.00    -0.009 NA
ATOM     15  N   LIG    1        2.751  -1.036  -0.286  0.00  0.00    +0.117 NA
ENDBRANCH   1  15
BRANCH  12  16
ATOM     16  N   LIG    1        1.202  -1.497   2.193  0.00  0.00    +0.119 NA
ATOM     17  N   LIG    1        1.724  -2.592   1.976  0.00  0.00    -0.009 NA
ATOM     18  N   LIG    1        2.242  -3.687   1.762  0.00  0.00    -0.328 NA
ENDBRANCH  12  16
TORSDOF 2
