REMARK  Name = /home/mpavan/autogrow4-4.0.3/Outputfolder/Run_0/generation_1/PDBs/Gen_1_Cross_621230__1.pdb
REMARK                            x       y       z     vdW  Elec       q    Type
REMARK                         _______ _______ _______ _____ _____    ______ ____
ROOT
ATOM      1  C   LIG    1       -3.993   0.275   1.237  0.00  0.00    -0.002 C 
ATOM      2  C   LIG    1       -3.585   1.670   1.523  0.00  0.00    -0.004 C 
ATOM      3  C   LIG    1       -2.497   2.189   0.938  0.00  0.00    -0.020 C 
ATOM      4  C   LIG    1       -1.779   1.385  -0.121  0.00  0.00    +0.053 C 
ATOM      5  C   LIG    1       -0.372   1.919  -0.430  0.00  0.00    +0.014 C 
ATOM      6  C   LIG    1        0.257   1.108  -1.573  0.00  0.00    +0.048 C 
ATOM      7  C   LIG    1        0.289  -0.408  -1.272  0.00  0.00    +0.214 C 
ATOM      8  C   LIG    1       -1.109  -0.948  -0.874  0.00  0.00    +0.270 C 
ATOM      9  C   LIG    1       -1.737  -0.116   0.285  0.00  0.00    +0.197 C 
ATOM     10  C   LIG    1       -3.157  -0.560   0.601  0.00  0.00    +0.013 C 
ENDROOT
BRANCH   8  11
ATOM     11  N   LIG    1       -1.984  -0.929  -2.047  0.00  0.00    +0.086 NA
ATOM     12  N   LIG    1       -2.465  -1.968  -2.501  0.00  0.00    -0.014 NA
ATOM     13  N   LIG    1       -2.945  -3.005  -2.955  0.00  0.00    -0.328 NA
ENDBRANCH   8  11
BRANCH   9  14
ATOM     14  N   LIG    1       -0.931  -0.264   1.505  0.00  0.00    +0.090 NA
ATOM     15  N   LIG    1       -0.778  -1.356   2.056  0.00  0.00    -0.014 NA
ATOM     16  N   LIG    1       -0.625  -2.446   2.606  0.00  0.00    -0.328 NA
ENDBRANCH   9  14
BRANCH   7  17
ATOM     17  O   LIG    1        1.226  -0.690  -0.230  0.00  0.00    -0.428 OA
BRANCH  17  18
ATOM     18  C   LIG    1        2.613  -0.677  -0.407  0.00  0.00    +0.512 C 
ATOM     19  O   LIG    1        3.114  -0.462  -1.545  0.00  0.00    -0.203 OA
BRANCH  18  20
ATOM     20  O   LIG    1        3.437  -0.913   0.697  0.00  0.00    -0.404 OA
BRANCH  20  21
ATOM     21  C   LIG    1        4.856  -0.915   0.608  0.00  0.00    +0.469 C 
BRANCH  21  22
ATOM     22  N   LIG    1        5.417  -1.206   1.920  0.00  0.00    +0.118 NA
ATOM     23  N   LIG    1        6.169  -0.409   2.481  0.00  0.00    -0.011 NA
ATOM     24  N   LIG    1        6.920   0.387   3.041  0.00  0.00    -0.328 NA
ENDBRANCH  21  22
ENDBRANCH  20  21
ENDBRANCH  18  20
ENDBRANCH  17  18
ENDBRANCH   7  17
TORSDOF 7
