REMARK  Name = /home/mpavan/autogrow4-4.0.3/Outputfolder/Run_0/generation_1/PDBs/Gen_1_Mutant_5_20951__1.pdb
REMARK                            x       y       z     vdW  Elec       q    Type
REMARK                         _______ _______ _______ _____ _____    ______ ____
ROOT
ATOM      1  C   LIG    1       -0.645   0.211  -1.171  0.00  0.00    +0.132 A 
ATOM      2  N   LIG    1       -0.237   0.990  -2.194  0.00  0.00    +0.023 NA
ATOM      3  N   LIG    1        1.048   1.229  -1.982  0.00  0.00    -0.010 N 
ATOM      4  H   LIG    1        1.642   1.822  -2.605  0.00  0.00    +0.525 HD
ATOM      5  N   LIG    1        1.471   0.638  -0.875  0.00  0.00    -0.101 N 
ATOM      6  C   LIG    1        0.423   0.003  -0.321  0.00  0.00    +0.188 A 
ENDROOT
BRANCH   5   7
ATOM      7  C   LIG    1        2.781   0.803  -0.307  0.00  0.00    +0.115 A 
ATOM      8  C   LIG    1        3.570  -0.305   0.095  0.00  0.00    +0.011 A 
ATOM      9  C   LIG    1        3.162  -1.635  -0.134  0.00  0.00    +0.011 A 
ATOM     10  C   LIG    1        3.962  -2.704   0.281  0.00  0.00    +0.001 A 
ATOM     11  C   LIG    1        5.181  -2.466   0.915  0.00  0.00    +0.001 A 
ATOM     12  C   LIG    1        5.617  -1.158   1.128  0.00  0.00    +0.008 A 
ATOM     13  C   LIG    1        4.828  -0.073   0.715  0.00  0.00    -0.016 A 
ATOM     14  C   LIG    1        5.286   1.239   0.901  0.00  0.00    +0.008 A 
ATOM     15  C   LIG    1        4.516   2.319   0.471  0.00  0.00    +0.003 A 
ATOM     16  C   LIG    1        3.277   2.103  -0.130  0.00  0.00    +0.032 A 
ENDBRANCH   5   7
BRANCH   1  17
ATOM     17  C   LIG    1       -2.057  -0.232  -0.953  0.00  0.00    +0.068 C 
BRANCH  17  18
ATOM     18  C   LIG    1       -2.818   0.797  -0.115  0.00  0.00    +0.041 C 
BRANCH  18  22
ATOM     19  O   LIG    1       -7.544   0.596  -1.536  0.00  0.00    -0.874 OA
ATOM     20  C   LIG    1       -6.555   0.249  -0.624  0.00  0.00    -0.106 A 
ATOM     21  C   LIG    1       -5.241   0.692  -0.815  0.00  0.00    -0.005 A 
ATOM     22  C   LIG    1       -4.238   0.350   0.108  0.00  0.00    -0.045 A 
ATOM     23  C   LIG    1       -4.562  -0.460   1.209  0.00  0.00    +0.042 A 
ATOM     24  C   LIG    1       -5.876  -0.901   1.397  0.00  0.00    +0.123 A 
ATOM     25  F   LIG    1       -6.183  -1.678   2.464  0.00  0.00    -0.205 F 
ATOM     26  C   LIG    1       -6.872  -0.545   0.482  0.00  0.00    +0.030 A 
ENDBRANCH  18  22
ENDBRANCH  17  18
ENDBRANCH   1  17
TORSDOF 4
