REMARK  Name = /home/mpavan/autogrow4-4.0.3/Outputfolder/Run_0/generation_1/PDBs/Gen_1_Mutant_19_676485__1.pdb
REMARK                            x       y       z     vdW  Elec       q    Type
REMARK                         _______ _______ _______ _____ _____    ______ ____
ROOT
ATOM      1  C   LIG    1       -5.975   2.054   0.354  0.00  0.00    +0.001 A 
ATOM      2  C   LIG    1       -4.592   2.241   0.430  0.00  0.00    +0.008 A 
ATOM      3  C   LIG    1       -3.725   1.141   0.336  0.00  0.00    -0.014 A 
ATOM      4  C   LIG    1       -2.337   1.316   0.418  0.00  0.00    +0.055 A 
ATOM      5  C   LIG    1       -1.467   0.211   0.324  0.00  0.00    +0.134 A 
ATOM      6  C   LIG    1       -2.003  -1.082   0.142  0.00  0.00    +0.088 A 
ATOM      7  C   LIG    1       -3.395  -1.256   0.072  0.00  0.00    +0.025 A 
ATOM      8  C   LIG    1       -4.258  -0.157   0.163  0.00  0.00    -0.017 A 
ATOM      9  C   LIG    1       -5.650  -0.332   0.088  0.00  0.00    +0.008 A 
ATOM     10  C   LIG    1       -6.502   0.771   0.184  0.00  0.00    +0.001 A 
ENDROOT
BRANCH   6  11
ATOM     11  C   LIG    1       -1.109  -2.264   0.065  0.00  0.00    +0.349 C 
ATOM     12  O   LIG    1       -0.150  -2.366   0.874  0.00  0.00    -0.261 OA
BRANCH  11  13
ATOM     13  N   LIG    1       -1.300  -3.302  -0.905  0.00  0.00    +0.189 NA
ATOM     14  N   LIG    1       -2.077  -3.177  -1.853  0.00  0.00    -0.016 NA
ATOM     15  N   LIG    1       -2.852  -3.054  -2.801  0.00  0.00    -0.330 NA
ENDBRANCH  11  13
ENDBRANCH   6  11
BRANCH   5  16
ATOM     16  O   LIG    1       -0.072   0.364   0.394  0.00  0.00    -0.483 OA
BRANCH  16  17
ATOM     17  C   LIG    1        0.602   1.604   0.585  0.00  0.00    +0.310 C 
BRANCH  17  18
ATOM     18  C   LIG    1        2.072   1.361   0.607  0.00  0.00    +0.224 A 
ATOM     19  C   LIG    1        2.894   1.218  -0.497  0.00  0.00    +0.129 A 
ATOM     20  C   LIG    1        4.138   0.981   0.054  0.00  0.00    +0.231 A 
ATOM     21  N   LIG    1        4.028   0.970   1.396  0.00  0.00    -0.031 N 
ATOM     22  H   LIG    1        4.790   0.793   2.087  0.00  0.00    +0.515 HD
ATOM     23  O   LIG    1        2.785   1.200   1.699  0.00  0.00    -0.236 OA
BRANCH  20  24
ATOM     24  C   LIG    1        5.397   0.678  -0.698  0.00  0.00    +0.108 C 
ATOM     25  C   LIG    1        5.524  -0.819  -0.953  0.00  0.00    +0.015 C 
ENDBRANCH  20  24
ENDBRANCH  17  18
ENDBRANCH  16  17
ENDBRANCH   5  16
TORSDOF 6
