REMARK  Name = /home/mpavan/autogrow4-4.0.3/Outputfolder/Run_0/generation_1/PDBs/Gen_1_Mutant_11_171759__1.pdb
REMARK                            x       y       z     vdW  Elec       q    Type
REMARK                         _______ _______ _______ _____ _____    ______ ____
ROOT
ATOM      1  C   LIG    1       -0.007   0.038   0.391  0.00  0.00    +0.128 A 
ATOM      2  C   LIG    1       -1.179   0.315  -0.347  0.00  0.00    +0.024 A 
ATOM      3  C   LIG    1       -1.361   1.558  -0.984  0.00  0.00    +0.012 A 
ATOM      4  C   LIG    1       -2.526   1.816  -1.712  0.00  0.00    +0.001 A 
ATOM      5  C   LIG    1       -3.521   0.842  -1.816  0.00  0.00    +0.001 A 
ATOM      6  C   LIG    1       -3.359  -0.397  -1.192  0.00  0.00    +0.008 A 
ATOM      7  C   LIG    1       -2.195  -0.671  -0.457  0.00  0.00    -0.014 A 
ATOM      8  C   LIG    1       -2.031  -1.913   0.169  0.00  0.00    +0.009 A 
ATOM      9  C   LIG    1       -0.874  -2.182   0.899  0.00  0.00    +0.004 A 
ATOM     10  C   LIG    1        0.129  -1.219   1.013  0.00  0.00    +0.046 A 
ENDROOT
BRANCH   1  11
ATOM     11  O   LIG    1        0.987   1.030   0.489  0.00  0.00    -0.490 OA
BRANCH  11  12
ATOM     12  C   LIG    1        2.270   0.872   1.095  0.00  0.00    +0.244 C 
BRANCH  12  13
ATOM     13  C   LIG    1        3.201   0.061   0.185  0.00  0.00    +0.119 C 
BRANCH  13  14
ATOM     14  N   LIG    1        4.526  -0.092   0.781  0.00  0.00    -0.327 NA
ATOM     15  H   LIG    1        4.930   0.857   0.957  0.00  0.00    +0.118 HD
ATOM     16  H   LIG    1        4.426  -0.571   1.706  0.00  0.00    +0.118 HD
ENDBRANCH  13  14
ENDBRANCH  12  13
ENDBRANCH  11  12
ENDBRANCH   1  11
TORSDOF 4
