REMARK  Name = /home/mpavan/autogrow4-4.0.3/Outputfolder/Run_0/generation_1/PDBs/Gen_1_Cross_118896__1.pdb
REMARK                            x       y       z     vdW  Elec       q    Type
REMARK                         _______ _______ _______ _____ _____    ______ ____
ROOT
ATOM      1  C   LIG    1        0.868   0.462  -2.124  0.00  0.00    +0.157 A 
ATOM      2  C   LIG    1       -0.447   0.121  -1.738  0.00  0.00    +0.017 A 
ATOM      3  C   LIG    1       -1.558   0.680  -2.404  0.00  0.00    +0.011 A 
ATOM      4  C   LIG    1       -2.855   0.307  -2.056  0.00  0.00    +0.001 A 
ATOM      5  C   LIG    1       -3.067  -0.636  -1.054  0.00  0.00    +0.001 A 
ATOM      6  C   LIG    1       -1.984  -1.198  -0.376  0.00  0.00    +0.011 A 
ATOM      7  C   LIG    1       -0.661  -0.809  -0.680  0.00  0.00    +0.018 A 
ATOM      8  C   LIG    1        0.456  -1.353   0.009  0.00  0.00    +0.173 A 
ATOM      9  C   LIG    1        1.752  -1.036  -0.422  0.00  0.00    +0.076 A 
ATOM     10 CL   LIG    1        3.159  -1.728   0.379  0.00  0.00    -0.081 Cl
ATOM     11  C   LIG    1        1.955  -0.138  -1.468  0.00  0.00    +0.057 A 
ENDROOT
BRANCH   1  14
ATOM     12  N   LIG    1        3.332   2.061  -3.948  0.00  0.00    -0.328 NA
ATOM     13  N   LIG    1        2.209   1.731  -3.569  0.00  0.00    -0.009 NA
ATOM     14  N   LIG    1        1.083   1.401  -3.192  0.00  0.00    +0.116 NA
ENDBRANCH   1  14
BRANCH   8  15
ATOM     15  N   LIG    1        0.315  -2.221   1.143  0.00  0.00    +0.118 NA
ATOM     16  N   LIG    1       -0.436  -1.952   2.082  0.00  0.00    -0.009 NA
ATOM     17  N   LIG    1       -1.183  -1.684   3.022  0.00  0.00    -0.328 NA
ENDBRANCH   8  15
TORSDOF 2
