REMARK  Name = /home/mpavan/autogrow4-4.0.3/Outputfolder/Run_0/generation_1/PDBs/Gen_1_Cross_343397__1.pdb
REMARK                            x       y       z     vdW  Elec       q    Type
REMARK                         _______ _______ _______ _____ _____    ______ ____
ROOT
ATOM      1  C   LIG    1        0.968  -0.664   0.626  0.00  0.00    -0.003 A 
ATOM      2  C   LIG    1        1.099  -0.962  -0.747  0.00  0.00    +0.016 A 
ATOM      3  C   LIG    1        1.320   0.054  -1.688  0.00  0.00    -0.018 A 
ATOM      4  C   LIG    1        1.453  -0.251  -3.052  0.00  0.00    +0.008 A 
ATOM      5  C   LIG    1        1.672   0.770  -3.982  0.00  0.00    +0.001 A 
ATOM      6  C   LIG    1        1.757   2.099  -3.560  0.00  0.00    +0.001 A 
ATOM      7  C   LIG    1        1.624   2.416  -2.205  0.00  0.00    +0.008 A 
ATOM      8  C   LIG    1        1.405   1.400  -1.262  0.00  0.00    -0.018 A 
ATOM      9  C   LIG    1        1.262   1.705   0.096  0.00  0.00    +0.009 A 
ATOM     10  C   LIG    1        1.042   0.689   1.028  0.00  0.00    +0.008 A 
ENDROOT
BRANCH   1  11
ATOM     11  C   LIG    1        0.694  -1.790   1.643  0.00  0.00    +0.156 C 
BRANCH  11  12
ATOM     12  C   LIG    1       -0.858  -2.004   1.879  0.00  0.00    +0.007 C 
ATOM     13  C   LIG    1       -1.541  -0.737   2.449  0.00  0.00    +0.015 C 
ATOM     14  C   LIG    1       -1.097  -3.167   2.877  0.00  0.00    +0.015 C 
ATOM     15  C   LIG    1       -1.568  -2.375   0.554  0.00  0.00    +0.015 C 
ENDBRANCH  11  12
BRANCH  11  17
ATOM     16  C   LIG    1        1.927  -1.231   3.971  0.00  0.00    +0.007 C 
ATOM     17  C   LIG    1        1.373  -1.480   2.929  0.00  0.00    -0.066 C 
ENDBRANCH  11  17
BRANCH  11  18
ATOM     18  O   LIG    1        1.240  -3.002   1.168  0.00  0.00    -0.372 OA
ATOM     19  H   LIG    1        2.217  -2.873   1.026  0.00  0.00    +0.212 HD
ENDBRANCH  11  18
ENDBRANCH   1  11
TORSDOF 4
