REMARK  Name = /home/mpavan/autogrow4-4.0.3/Outputfolder/Run_0/generation_1/PDBs/Gen_1_Mutant_10_622821__1.pdb
REMARK                            x       y       z     vdW  Elec       q    Type
REMARK                         _______ _______ _______ _____ _____    ______ ____
ROOT
ATOM      1  C   LIG    1        3.322  -0.184   0.924  0.00  0.00    +0.001 A 
ATOM      2  C   LIG    1        2.082  -0.603   1.416  0.00  0.00    +0.008 A 
ATOM      3  C   LIG    1        0.909  -0.327   0.696  0.00  0.00    -0.016 A 
ATOM      4  C   LIG    1       -0.338  -0.753   1.172  0.00  0.00    +0.045 A 
ATOM      5  C   LIG    1       -1.508  -0.498   0.446  0.00  0.00    +0.174 A 
ATOM      6  C   LIG    1       -1.436   0.268  -0.749  0.00  0.00    +0.107 A 
ATOM      7  C   LIG    1       -0.184   0.661  -1.240  0.00  0.00    +0.039 A 
ATOM      8  C   LIG    1        0.988   0.374  -0.529  0.00  0.00    -0.016 A 
ATOM      9  C   LIG    1        2.239   0.789  -1.012  0.00  0.00    +0.008 A 
ATOM     10  C   LIG    1        3.400   0.509  -0.286  0.00  0.00    +0.001 A 
ENDROOT
BRANCH   5  11
ATOM     11  N   LIG    1       -2.728  -1.081   0.926  0.00  0.00    +0.118 NA
ATOM     12  N   LIG    1       -3.594  -1.514   0.165  0.00  0.00    -0.009 NA
ATOM     13  N   LIG    1       -4.459  -1.952  -0.593  0.00  0.00    -0.328 NA
ENDBRANCH   5  11
BRANCH   6  14
ATOM     14  N   LIG    1       -2.599   0.710  -1.463  0.00  0.00    -0.195 NA
ATOM     15  C   LIG    1       -3.613   1.216  -0.882  0.00  0.00    +0.042 C 
ATOM     16  S   LIG    1       -4.895   1.858  -0.147  0.00  0.00    +0.021 S 
ENDBRANCH   6  14
TORSDOF 2
