REMARK  Name = /home/mpavan/autogrow4-4.0.3/Outputfolder/Run_0/generation_1/PDBs/Gen_1_Cross_511577__1.pdb
REMARK                            x       y       z     vdW  Elec       q    Type
REMARK                         _______ _______ _______ _____ _____    ______ ____
ROOT
ATOM      1  C   LIG    1       -0.737   2.537  -0.927  0.00  0.00    +0.001 A 
ATOM      2  C   LIG    1        0.491   1.990  -0.468  0.00  0.00    +0.011 A 
ATOM      3  C   LIG    1        0.550   0.640  -0.056  0.00  0.00    +0.017 A 
ATOM      4  C   LIG    1        1.701  -0.031   0.421  0.00  0.00    +0.155 A 
ATOM      5  C   LIG    1        1.594  -1.405   0.801  0.00  0.00    +0.037 A 
ATOM      6  C   LIG    1        0.363  -2.097   0.707  0.00  0.00    +0.028 A 
ATOM      7  C   LIG    1       -0.744  -1.397   0.232  0.00  0.00    +0.051 A 
ATOM      8  N   LIG    1       -2.084  -1.854   0.042  0.00  0.00    -0.322 N 
ATOM      9  C   LIG    1       -2.757  -0.692  -0.464  0.00  0.00    +0.257 A 
ATOM     10  O   LIG    1       -3.978  -0.657  -0.770  0.00  0.00    -0.267 OA
ATOM     11  C   LIG    1       -1.813   0.419  -0.563  0.00  0.00    +0.049 A 
ATOM     12  H   LIG    1       -2.478  -2.803   0.226  0.00  0.00    +0.169 HD
ATOM     13  C   LIG    1       -0.626  -0.087  -0.126  0.00  0.00    +0.020 A 
ATOM     14  C   LIG    1       -1.910   1.746  -0.978  0.00  0.00    +0.014 A 
ENDROOT
BRANCH   4  15
ATOM     15  N   LIG    1        2.946   0.676   0.514  0.00  0.00    +0.116 NA
ATOM     16  N   LIG    1        3.978   0.141   0.922  0.00  0.00    -0.009 NA
ATOM     17  N   LIG    1        5.009  -0.392   1.329  0.00  0.00    -0.328 NA
ENDBRANCH   4  15
TORSDOF 1
