REMARK  Name = /home/mpavan/autogrow4-4.0.3/Outputfolder/Run_0/generation_1/PDBs/Gen_1_Mutant_5_128035__1.pdb
REMARK                            x       y       z     vdW  Elec       q    Type
REMARK                         _______ _______ _______ _____ _____    ______ ____
ROOT
ATOM      1  C   LIG    1       -1.281   0.075  -0.910  0.00  0.00    +0.108 A 
ATOM      2  N   LIG    1       -1.093  -1.244  -0.691  0.00  0.00    -0.131 N 
ATOM      3  N   LIG    1       -1.161  -1.856  -1.864  0.00  0.00    -0.014 N 
ATOM      4  H   LIG    1       -1.044  -2.884  -2.004  0.00  0.00    +0.524 HD
ATOM      5  N   LIG    1       -1.401  -1.000  -2.845  0.00  0.00    +0.022 NA
ATOM      6  C   LIG    1       -1.472   0.220  -2.275  0.00  0.00    +0.132 A 
ATOM      7  C   LIG    1       -1.812   1.472  -3.017  0.00  0.00    +0.074 C 
ENDROOT
BRANCH   1   8
ATOM      8  C   LIG    1       -1.400   1.146   0.143  0.00  0.00    +0.092 C 
BRANCH   8   9
ATOM      9  C   LIG    1       -2.874   1.399   0.507  0.00  0.00    +0.124 C 
BRANCH   9  11
ATOM     10  C   LIG    1       -2.711   3.896   1.059  0.00  0.00    +0.006 C 
ATOM     11  C   LIG    1       -3.002   2.491   1.591  0.00  0.00    +0.028 C 
ENDBRANCH   9  11
BRANCH   9  12
ATOM     12  O   LIG    1       -3.424   0.191   1.011  0.00  0.00    -0.374 OA
BRANCH  12  13
ATOM     13  C   LIG    1       -4.770   0.007   0.607  0.00  0.00    +0.112 C 
ATOM     14  C   LIG    1       -5.494  -0.784   1.696  0.00  0.00    +0.037 C 
ATOM     15  C   LIG    1       -4.816  -0.762  -0.718  0.00  0.00    +0.037 C 
ENDBRANCH  12  13
ENDBRANCH   9  12
ENDBRANCH   8   9
ENDBRANCH   1   8
BRANCH   2  16
ATOM     16  C   LIG    1       -0.799  -1.921   0.575  0.00  0.00    +0.194 C 
BRANCH  16  17
ATOM     17  C   LIG    1        0.681  -1.772   0.946  0.00  0.00    +0.068 C 
BRANCH  17  18
ATOM     18  C   LIG    1        1.603  -2.518  -0.027  0.00  0.00    +0.231 C 
BRANCH  18  19
ATOM     19  O   LIG    1        2.971  -2.254   0.280  0.00  0.00    -0.491 OA
BRANCH  19  20
ATOM     20  C   LIG    1        3.658  -1.058  -0.006  0.00  0.00    +0.128 A 
ATOM     21  C   LIG    1        4.986  -0.905   0.450  0.00  0.00    +0.024 A 
ATOM     22  C   LIG    1        5.625  -1.923   1.183  0.00  0.00    +0.012 A 
ATOM     23  C   LIG    1        6.939  -1.756   1.627  0.00  0.00    +0.001 A 
ATOM     24  C   LIG    1        7.632  -0.577   1.349  0.00  0.00    +0.001 A 
ATOM     25  C   LIG    1        7.015   0.445   0.624  0.00  0.00    +0.008 A 
ATOM     26  C   LIG    1        5.695   0.292   0.171  0.00  0.00    -0.014 A 
ATOM     27  C   LIG    1        5.075   1.317  -0.556  0.00  0.00    +0.009 A 
ATOM     28  C   LIG    1        3.765   1.162  -1.007  0.00  0.00    +0.004 A 
ATOM     29  C   LIG    1        3.061  -0.012  -0.740  0.00  0.00    +0.046 A 
ENDBRANCH  19  20
ENDBRANCH  18  19
ENDBRANCH  17  18
ENDBRANCH  16  17
ENDBRANCH   2  16
TORSDOF 10
