REMARK  Name = /home/mpavan/autogrow4-4.0.3/Outputfolder/Run_0/generation_1/PDBs/naphthalene_29__1.pdb
REMARK                            x       y       z     vdW  Elec       q    Type
REMARK                         _______ _______ _______ _____ _____    ______ ____
ROOT
ATOM      1  C   LIG    1        3.200  -0.252   2.107  0.00  0.00    +0.001 A 
ATOM      2  C   LIG    1        2.942  -0.042   0.750  0.00  0.00    +0.008 A 
ATOM      3  C   LIG    1        1.620   0.082   0.295  0.00  0.00    -0.018 A 
ATOM      4  C   LIG    1        1.347   0.299  -1.062  0.00  0.00    +0.012 A 
ATOM      5  C   LIG    1        0.027   0.421  -1.504  0.00  0.00    +0.047 A 
ATOM      6  C   LIG    1       -1.042   0.315  -0.595  0.00  0.00    +0.136 A 
ATOM      7  C   LIG    1       -0.771   0.118   0.764  0.00  0.00    +0.055 A 
ATOM      8  C   LIG    1        0.550  -0.006   1.218  0.00  0.00    -0.014 A 
ATOM      9  C   LIG    1        0.823  -0.216   2.579  0.00  0.00    +0.008 A 
ATOM     10  C   LIG    1        2.145  -0.339   3.019  0.00  0.00    +0.001 A 
ENDROOT
BRANCH   6  11
ATOM     11  O   LIG    1       -2.381   0.442  -0.996  0.00  0.00    -0.395 OA
BRANCH  11  12
ATOM     12  C   LIG    1       -2.887   0.091  -2.253  0.00  0.00    +0.518 C 
ATOM     13  O   LIG    1       -2.229  -0.653  -3.032  0.00  0.00    -0.202 OA
BRANCH  12  14
ATOM     14  O   LIG    1       -4.164   0.534  -2.612  0.00  0.00    -0.403 OA
BRANCH  14  15
ATOM     15  C   LIG    1       -4.785   0.200  -3.851  0.00  0.00    +0.469 C 
BRANCH  15  16
ATOM     16  N   LIG    1       -5.090  -1.223  -3.897  0.00  0.00    +0.118 NA
ATOM     17  N   LIG    1       -5.858  -1.729  -3.078  0.00  0.00    -0.011 NA
ATOM     18  N   LIG    1       -6.625  -2.235  -2.260  0.00  0.00    -0.328 NA
ENDBRANCH  15  16
ENDBRANCH  14  15
ENDBRANCH  12  14
ENDBRANCH  11  12
ENDBRANCH   6  11
TORSDOF 5
