REMARK  Name = /home/mpavan/autogrow4-4.0.3/Outputfolder/Run_0/generation_1/PDBs/naphthalene_47__1.pdb
REMARK                            x       y       z     vdW  Elec       q    Type
REMARK                         _______ _______ _______ _____ _____    ______ ____
ROOT
ATOM      1  C   LIG    1        0.395   2.717  -2.426  0.00  0.00    +0.021 A 
ATOM      2  C   LIG    1        0.281   1.306  -2.393  0.00  0.00    +0.051 A 
ATOM      3 CL   LIG    1        0.254   0.472  -3.944  0.00  0.00    -0.083 Cl
ATOM      4  C   LIG    1        0.196   0.636  -1.137  0.00  0.00    +0.033 A 
ATOM      5  C   LIG    1        0.079  -0.768  -0.927  0.00  0.00    +0.157 A 
ATOM      6  C   LIG    1        0.006  -1.265   0.406  0.00  0.00    +0.036 A 
ATOM      7  C   LIG    1        0.047  -0.395   1.511  0.00  0.00    +0.006 A 
ATOM      8  C   LIG    1        0.162   0.972   1.277  0.00  0.00    -0.039 A 
ATOM      9  C   LIG    1        0.227   2.095   2.262  0.00  0.00    +0.040 C 
ATOM     10  C   LIG    1        0.350   3.357   1.365  0.00  0.00    +0.040 C 
ATOM     11  C   LIG    1        0.341   2.800  -0.023  0.00  0.00    -0.039 A 
ATOM     12  C   LIG    1        0.232   1.444   0.004  0.00  0.00    -0.008 A 
ATOM     13  C   LIG    1        0.425   3.472  -1.240  0.00  0.00    +0.006 A 
ENDROOT
BRANCH   5  14
ATOM     14  N   LIG    1        0.035  -1.673  -2.041  0.00  0.00    +0.116 NA
ATOM     15  N   LIG    1       -0.066  -2.893  -1.901  0.00  0.00    -0.009 NA
ATOM     16  N   LIG    1       -0.167  -4.111  -1.764  0.00  0.00    -0.328 NA
ENDBRANCH   5  14
TORSDOF 1
