REMARK  Name = /home/mpavan/autogrow4-4.0.3/Outputfolder/Run_0/generation_1/PDBs/naphthalene_67__1.pdb
REMARK                            x       y       z     vdW  Elec       q    Type
REMARK                         _______ _______ _______ _____ _____    ______ ____
ROOT
ATOM      1  C   LIG    1        2.995  -0.114   1.901  0.00  0.00    +0.001 A 
ATOM      2  C   LIG    1        2.402  -0.790   0.835  0.00  0.00    +0.008 A 
ATOM      3  C   LIG    1        1.372  -0.185   0.097  0.00  0.00    -0.016 A 
ATOM      4  C   LIG    1        0.818  -0.852  -1.001  0.00  0.00    +0.010 A 
ATOM      5  C   LIG    1       -0.177  -0.246  -1.763  0.00  0.00    +0.026 A 
ATOM      6  C   LIG    1       -0.662   1.023  -1.427  0.00  0.00    +0.058 A 
ATOM      7  C   LIG    1       -0.152   1.697  -0.297  0.00  0.00    +0.176 A 
ATOM      8  C   LIG    1        0.907   1.110   0.450  0.00  0.00    +0.016 A 
ATOM      9  C   LIG    1        1.549   1.789   1.509  0.00  0.00    +0.011 A 
ATOM     10  C   LIG    1        2.576   1.175   2.230  0.00  0.00    +0.001 A 
ENDROOT
BRANCH   6  11
ATOM     11  N   LIG    1       -1.701   1.605  -2.226  0.00  0.00    -0.356 N 
ATOM     12  H   LIG    1       -2.085   1.095  -3.052  0.00  0.00    +0.142 HD
ATOM     13  H   LIG    1       -2.095   2.548  -2.014  0.00  0.00    +0.142 HD
ENDBRANCH   6  11
BRANCH   7  14
ATOM     14  N   LIG    1       -0.731   2.962   0.061  0.00  0.00    +0.118 NA
ATOM     15  N   LIG    1       -1.075   3.219   1.216  0.00  0.00    -0.009 NA
ATOM     16  N   LIG    1       -1.421   3.477   2.368  0.00  0.00    -0.328 NA
ENDBRANCH   7  14
TORSDOF 2
